[root]
type=Root
children=system
eventq_index=0
full_system=false
sim_quantum=0
time_sync_enable=false
time_sync_period=100000000
time_sync_spin_threshold=100000

[system]
type=System
children=clk_domain cpu0 cpu1 cpu2 cpu3 cpu4 cpu5 cpu6 cpu7 dvfs_handler mem_ctrls0 mem_ctrls1 mem_ctrls2 mem_ctrls3 mem_ctrls4 mem_ctrls5 mem_ctrls6 mem_ctrls7 ruby sys_port_proxy voltage_domain
boot_osflags=a
cache_line_size=64
clk_domain=system.clk_domain
default_p_state=UNDEFINED
eventq_index=0
exit_on_work_items=false
init_param=0
kernel=
kernel_addr_check=true
kernel_extras=
load_addr_mask=18446744073709551615
load_offset=0
mem_mode=timing
mem_ranges=0:536870911:0:0:0:0
memories=system.mem_ctrls0 system.mem_ctrls1 system.mem_ctrls2 system.mem_ctrls3 system.mem_ctrls4 system.mem_ctrls5 system.mem_ctrls6 system.mem_ctrls7
mmap_using_noreserve=false
multi_thread=false
num_work_ids=16
p_state_clk_gate_bins=20
p_state_clk_gate_max=1000000000
p_state_clk_gate_min=1
power_model=
readfile=
symbolfile=
thermal_components=
thermal_model=Null
work_begin_ckpt_count=0
work_begin_cpu_id_exit=-1
work_begin_exit_count=0
work_cpus_ckpt_count=0
work_end_ckpt_count=0
work_end_exit_count=0
work_item_id=-1
system_port=system.sys_port_proxy.slave[0]

[system.clk_domain]
type=SrcClockDomain
clock=1
domain_id=-1
eventq_index=0
init_perf_level=0
voltage_domain=system.voltage_domain

[system.cpu0]
type=GarnetSyntheticTraffic
block_offset=6
burst_interval=100
burst_length=10
clk_domain=system.clk_domain
default_p_state=UNDEFINED
eventq_index=0
inj_rate=0.1
inj_vnet=-1
memory_size=65536
num_dest=8
num_packages=4
num_packets_max=-1
p_state_clk_gate_bins=20
p_state_clk_gate_max=1000000000
p_state_clk_gate_min=1
power_model=
precision=3
response_limit=5000000
sim_cycles=1000
single_dest=-1
single_sender=-1
system=system
traffic_type=training
test=system.ruby.l1_cntrl0.sequencer.slave[0]

[system.cpu1]
type=GarnetSyntheticTraffic
block_offset=6
burst_interval=100
burst_length=10
clk_domain=system.clk_domain
default_p_state=UNDEFINED
eventq_index=0
inj_rate=0.1
inj_vnet=-1
memory_size=65536
num_dest=8
num_packages=4
num_packets_max=-1
p_state_clk_gate_bins=20
p_state_clk_gate_max=1000000000
p_state_clk_gate_min=1
power_model=
precision=3
response_limit=5000000
sim_cycles=1000
single_dest=-1
single_sender=-1
system=system
traffic_type=training
test=system.ruby.l1_cntrl1.sequencer.slave[0]

[system.cpu2]
type=GarnetSyntheticTraffic
block_offset=6
burst_interval=100
burst_length=10
clk_domain=system.clk_domain
default_p_state=UNDEFINED
eventq_index=0
inj_rate=0.1
inj_vnet=-1
memory_size=65536
num_dest=8
num_packages=4
num_packets_max=-1
p_state_clk_gate_bins=20
p_state_clk_gate_max=1000000000
p_state_clk_gate_min=1
power_model=
precision=3
response_limit=5000000
sim_cycles=1000
single_dest=-1
single_sender=-1
system=system
traffic_type=training
test=system.ruby.l1_cntrl2.sequencer.slave[0]

[system.cpu3]
type=GarnetSyntheticTraffic
block_offset=6
burst_interval=100
burst_length=10
clk_domain=system.clk_domain
default_p_state=UNDEFINED
eventq_index=0
inj_rate=0.1
inj_vnet=-1
memory_size=65536
num_dest=8
num_packages=4
num_packets_max=-1
p_state_clk_gate_bins=20
p_state_clk_gate_max=1000000000
p_state_clk_gate_min=1
power_model=
precision=3
response_limit=5000000
sim_cycles=1000
single_dest=-1
single_sender=-1
system=system
traffic_type=training
test=system.ruby.l1_cntrl3.sequencer.slave[0]

[system.cpu4]
type=GarnetSyntheticTraffic
block_offset=6
burst_interval=100
burst_length=10
clk_domain=system.clk_domain
default_p_state=UNDEFINED
eventq_index=0
inj_rate=0.1
inj_vnet=-1
memory_size=65536
num_dest=8
num_packages=4
num_packets_max=-1
p_state_clk_gate_bins=20
p_state_clk_gate_max=1000000000
p_state_clk_gate_min=1
power_model=
precision=3
response_limit=5000000
sim_cycles=1000
single_dest=-1
single_sender=-1
system=system
traffic_type=training
test=system.ruby.l1_cntrl4.sequencer.slave[0]

[system.cpu5]
type=GarnetSyntheticTraffic
block_offset=6
burst_interval=100
burst_length=10
clk_domain=system.clk_domain
default_p_state=UNDEFINED
eventq_index=0
inj_rate=0.1
inj_vnet=-1
memory_size=65536
num_dest=8
num_packages=4
num_packets_max=-1
p_state_clk_gate_bins=20
p_state_clk_gate_max=1000000000
p_state_clk_gate_min=1
power_model=
precision=3
response_limit=5000000
sim_cycles=1000
single_dest=-1
single_sender=-1
system=system
traffic_type=training
test=system.ruby.l1_cntrl5.sequencer.slave[0]

[system.cpu6]
type=GarnetSyntheticTraffic
block_offset=6
burst_interval=100
burst_length=10
clk_domain=system.clk_domain
default_p_state=UNDEFINED
eventq_index=0
inj_rate=0.1
inj_vnet=-1
memory_size=65536
num_dest=8
num_packages=4
num_packets_max=-1
p_state_clk_gate_bins=20
p_state_clk_gate_max=1000000000
p_state_clk_gate_min=1
power_model=
precision=3
response_limit=5000000
sim_cycles=1000
single_dest=-1
single_sender=-1
system=system
traffic_type=training
test=system.ruby.l1_cntrl6.sequencer.slave[0]

[system.cpu7]
type=GarnetSyntheticTraffic
block_offset=6
burst_interval=100
burst_length=10
clk_domain=system.clk_domain
default_p_state=UNDEFINED
eventq_index=0
inj_rate=0.1
inj_vnet=-1
memory_size=65536
num_dest=8
num_packages=4
num_packets_max=-1
p_state_clk_gate_bins=20
p_state_clk_gate_max=1000000000
p_state_clk_gate_min=1
power_model=
precision=3
response_limit=5000000
sim_cycles=1000
single_dest=-1
single_sender=-1
system=system
traffic_type=training
test=system.ruby.l1_cntrl7.sequencer.slave[0]

[system.dvfs_handler]
type=DVFSHandler
domains=
enable=false
eventq_index=0
sys_clk_domain=system.clk_domain
transition_latency=100000

[system.mem_ctrls0]
type=DRAMCtrl
IDD0=0.055
IDD02=0.0
IDD2N=0.032
IDD2N2=0.0
IDD2P0=0.0
IDD2P02=0.0
IDD2P1=0.032
IDD2P12=0.0
IDD3N=0.038
IDD3N2=0.0
IDD3P0=0.0
IDD3P02=0.0
IDD3P1=0.038
IDD3P12=0.0
IDD4R=0.157
IDD4R2=0.0
IDD4W=0.125
IDD4W2=0.0
IDD5=0.235
IDD52=0.0
IDD6=0.02
IDD62=0.0
VDD=1.5
VDD2=0.0
activation_limit=4
addr_mapping=RoRaBaCoCh
bank_groups_per_rank=0
banks_per_rank=8
burst_length=8
channels=8
clk_domain=system.clk_domain
conf_table_reported=true
default_p_state=UNDEFINED
device_bus_width=8
device_rowbuffer_size=1024
device_size=536870912
devices_per_rank=8
dll=true
eventq_index=0
in_addr_map=true
kvm_map=true
max_accesses_per_row=16
mem_sched_policy=frfcfs
min_writes_per_switch=16
null=false
p_state_clk_gate_bins=20
p_state_clk_gate_max=1000000000
p_state_clk_gate_min=1
page_policy=open_adaptive
power_model=
qos_masters=               
qos_policy=Null
qos_priorities=1
qos_priority_escalation=false
qos_q_policy=fifo
qos_syncro_scheduler=false
qos_turnaround_policy=Null
range=0:536870911:8:22:3:0
ranks_per_channel=2
read_buffer_size=32
static_backend_latency=10
static_frontend_latency=10
tBURST=5
tCCD_L=0
tCCD_L_WR=0
tCK=1
tCL=14
tCS=3
tRAS=35
tRCD=14
tREFI=7800
tRFC=260
tRP=14
tRRD=6
tRRD_L=0
tRTP=8
tRTW=3
tWR=15
tWTR=8
tXAW=30
tXP=6
tXPDLL=0
tXS=270
tXSDLL=0
write_buffer_size=64
write_high_thresh_perc=85
write_low_thresh_perc=50
port=system.ruby.dir_cntrl0.memory

[system.mem_ctrls1]
type=DRAMCtrl
IDD0=0.055
IDD02=0.0
IDD2N=0.032
IDD2N2=0.0
IDD2P0=0.0
IDD2P02=0.0
IDD2P1=0.032
IDD2P12=0.0
IDD3N=0.038
IDD3N2=0.0
IDD3P0=0.0
IDD3P02=0.0
IDD3P1=0.038
IDD3P12=0.0
IDD4R=0.157
IDD4R2=0.0
IDD4W=0.125
IDD4W2=0.0
IDD5=0.235
IDD52=0.0
IDD6=0.02
IDD62=0.0
VDD=1.5
VDD2=0.0
activation_limit=4
addr_mapping=RoRaBaCoCh
bank_groups_per_rank=0
banks_per_rank=8
burst_length=8
channels=8
clk_domain=system.clk_domain
conf_table_reported=true
default_p_state=UNDEFINED
device_bus_width=8
device_rowbuffer_size=1024
device_size=536870912
devices_per_rank=8
dll=true
eventq_index=0
in_addr_map=true
kvm_map=true
max_accesses_per_row=16
mem_sched_policy=frfcfs
min_writes_per_switch=16
null=false
p_state_clk_gate_bins=20
p_state_clk_gate_max=1000000000
p_state_clk_gate_min=1
page_policy=open_adaptive
power_model=
qos_masters=               
qos_policy=Null
qos_priorities=1
qos_priority_escalation=false
qos_q_policy=fifo
qos_syncro_scheduler=false
qos_turnaround_policy=Null
range=0:536870911:8:22:3:1
ranks_per_channel=2
read_buffer_size=32
static_backend_latency=10
static_frontend_latency=10
tBURST=5
tCCD_L=0
tCCD_L_WR=0
tCK=1
tCL=14
tCS=3
tRAS=35
tRCD=14
tREFI=7800
tRFC=260
tRP=14
tRRD=6
tRRD_L=0
tRTP=8
tRTW=3
tWR=15
tWTR=8
tXAW=30
tXP=6
tXPDLL=0
tXS=270
tXSDLL=0
write_buffer_size=64
write_high_thresh_perc=85
write_low_thresh_perc=50
port=system.ruby.dir_cntrl1.memory

[system.mem_ctrls2]
type=DRAMCtrl
IDD0=0.055
IDD02=0.0
IDD2N=0.032
IDD2N2=0.0
IDD2P0=0.0
IDD2P02=0.0
IDD2P1=0.032
IDD2P12=0.0
IDD3N=0.038
IDD3N2=0.0
IDD3P0=0.0
IDD3P02=0.0
IDD3P1=0.038
IDD3P12=0.0
IDD4R=0.157
IDD4R2=0.0
IDD4W=0.125
IDD4W2=0.0
IDD5=0.235
IDD52=0.0
IDD6=0.02
IDD62=0.0
VDD=1.5
VDD2=0.0
activation_limit=4
addr_mapping=RoRaBaCoCh
bank_groups_per_rank=0
banks_per_rank=8
burst_length=8
channels=8
clk_domain=system.clk_domain
conf_table_reported=true
default_p_state=UNDEFINED
device_bus_width=8
device_rowbuffer_size=1024
device_size=536870912
devices_per_rank=8
dll=true
eventq_index=0
in_addr_map=true
kvm_map=true
max_accesses_per_row=16
mem_sched_policy=frfcfs
min_writes_per_switch=16
null=false
p_state_clk_gate_bins=20
p_state_clk_gate_max=1000000000
p_state_clk_gate_min=1
page_policy=open_adaptive
power_model=
qos_masters=               
qos_policy=Null
qos_priorities=1
qos_priority_escalation=false
qos_q_policy=fifo
qos_syncro_scheduler=false
qos_turnaround_policy=Null
range=0:536870911:8:22:3:2
ranks_per_channel=2
read_buffer_size=32
static_backend_latency=10
static_frontend_latency=10
tBURST=5
tCCD_L=0
tCCD_L_WR=0
tCK=1
tCL=14
tCS=3
tRAS=35
tRCD=14
tREFI=7800
tRFC=260
tRP=14
tRRD=6
tRRD_L=0
tRTP=8
tRTW=3
tWR=15
tWTR=8
tXAW=30
tXP=6
tXPDLL=0
tXS=270
tXSDLL=0
write_buffer_size=64
write_high_thresh_perc=85
write_low_thresh_perc=50
port=system.ruby.dir_cntrl2.memory

[system.mem_ctrls3]
type=DRAMCtrl
IDD0=0.055
IDD02=0.0
IDD2N=0.032
IDD2N2=0.0
IDD2P0=0.0
IDD2P02=0.0
IDD2P1=0.032
IDD2P12=0.0
IDD3N=0.038
IDD3N2=0.0
IDD3P0=0.0
IDD3P02=0.0
IDD3P1=0.038
IDD3P12=0.0
IDD4R=0.157
IDD4R2=0.0
IDD4W=0.125
IDD4W2=0.0
IDD5=0.235
IDD52=0.0
IDD6=0.02
IDD62=0.0
VDD=1.5
VDD2=0.0
activation_limit=4
addr_mapping=RoRaBaCoCh
bank_groups_per_rank=0
banks_per_rank=8
burst_length=8
channels=8
clk_domain=system.clk_domain
conf_table_reported=true
default_p_state=UNDEFINED
device_bus_width=8
device_rowbuffer_size=1024
device_size=536870912
devices_per_rank=8
dll=true
eventq_index=0
in_addr_map=true
kvm_map=true
max_accesses_per_row=16
mem_sched_policy=frfcfs
min_writes_per_switch=16
null=false
p_state_clk_gate_bins=20
p_state_clk_gate_max=1000000000
p_state_clk_gate_min=1
page_policy=open_adaptive
power_model=
qos_masters=               
qos_policy=Null
qos_priorities=1
qos_priority_escalation=false
qos_q_policy=fifo
qos_syncro_scheduler=false
qos_turnaround_policy=Null
range=0:536870911:8:22:3:3
ranks_per_channel=2
read_buffer_size=32
static_backend_latency=10
static_frontend_latency=10
tBURST=5
tCCD_L=0
tCCD_L_WR=0
tCK=1
tCL=14
tCS=3
tRAS=35
tRCD=14
tREFI=7800
tRFC=260
tRP=14
tRRD=6
tRRD_L=0
tRTP=8
tRTW=3
tWR=15
tWTR=8
tXAW=30
tXP=6
tXPDLL=0
tXS=270
tXSDLL=0
write_buffer_size=64
write_high_thresh_perc=85
write_low_thresh_perc=50
port=system.ruby.dir_cntrl3.memory

[system.mem_ctrls4]
type=DRAMCtrl
IDD0=0.055
IDD02=0.0
IDD2N=0.032
IDD2N2=0.0
IDD2P0=0.0
IDD2P02=0.0
IDD2P1=0.032
IDD2P12=0.0
IDD3N=0.038
IDD3N2=0.0
IDD3P0=0.0
IDD3P02=0.0
IDD3P1=0.038
IDD3P12=0.0
IDD4R=0.157
IDD4R2=0.0
IDD4W=0.125
IDD4W2=0.0
IDD5=0.235
IDD52=0.0
IDD6=0.02
IDD62=0.0
VDD=1.5
VDD2=0.0
activation_limit=4
addr_mapping=RoRaBaCoCh
bank_groups_per_rank=0
banks_per_rank=8
burst_length=8
channels=8
clk_domain=system.clk_domain
conf_table_reported=true
default_p_state=UNDEFINED
device_bus_width=8
device_rowbuffer_size=1024
device_size=536870912
devices_per_rank=8
dll=true
eventq_index=0
in_addr_map=true
kvm_map=true
max_accesses_per_row=16
mem_sched_policy=frfcfs
min_writes_per_switch=16
null=false
p_state_clk_gate_bins=20
p_state_clk_gate_max=1000000000
p_state_clk_gate_min=1
page_policy=open_adaptive
power_model=
qos_masters=               
qos_policy=Null
qos_priorities=1
qos_priority_escalation=false
qos_q_policy=fifo
qos_syncro_scheduler=false
qos_turnaround_policy=Null
range=0:536870911:8:22:3:4
ranks_per_channel=2
read_buffer_size=32
static_backend_latency=10
static_frontend_latency=10
tBURST=5
tCCD_L=0
tCCD_L_WR=0
tCK=1
tCL=14
tCS=3
tRAS=35
tRCD=14
tREFI=7800
tRFC=260
tRP=14
tRRD=6
tRRD_L=0
tRTP=8
tRTW=3
tWR=15
tWTR=8
tXAW=30
tXP=6
tXPDLL=0
tXS=270
tXSDLL=0
write_buffer_size=64
write_high_thresh_perc=85
write_low_thresh_perc=50
port=system.ruby.dir_cntrl4.memory

[system.mem_ctrls5]
type=DRAMCtrl
IDD0=0.055
IDD02=0.0
IDD2N=0.032
IDD2N2=0.0
IDD2P0=0.0
IDD2P02=0.0
IDD2P1=0.032
IDD2P12=0.0
IDD3N=0.038
IDD3N2=0.0
IDD3P0=0.0
IDD3P02=0.0
IDD3P1=0.038
IDD3P12=0.0
IDD4R=0.157
IDD4R2=0.0
IDD4W=0.125
IDD4W2=0.0
IDD5=0.235
IDD52=0.0
IDD6=0.02
IDD62=0.0
VDD=1.5
VDD2=0.0
activation_limit=4
addr_mapping=RoRaBaCoCh
bank_groups_per_rank=0
banks_per_rank=8
burst_length=8
channels=8
clk_domain=system.clk_domain
conf_table_reported=true
default_p_state=UNDEFINED
device_bus_width=8
device_rowbuffer_size=1024
device_size=536870912
devices_per_rank=8
dll=true
eventq_index=0
in_addr_map=true
kvm_map=true
max_accesses_per_row=16
mem_sched_policy=frfcfs
min_writes_per_switch=16
null=false
p_state_clk_gate_bins=20
p_state_clk_gate_max=1000000000
p_state_clk_gate_min=1
page_policy=open_adaptive
power_model=
qos_masters=               
qos_policy=Null
qos_priorities=1
qos_priority_escalation=false
qos_q_policy=fifo
qos_syncro_scheduler=false
qos_turnaround_policy=Null
range=0:536870911:8:22:3:5
ranks_per_channel=2
read_buffer_size=32
static_backend_latency=10
static_frontend_latency=10
tBURST=5
tCCD_L=0
tCCD_L_WR=0
tCK=1
tCL=14
tCS=3
tRAS=35
tRCD=14
tREFI=7800
tRFC=260
tRP=14
tRRD=6
tRRD_L=0
tRTP=8
tRTW=3
tWR=15
tWTR=8
tXAW=30
tXP=6
tXPDLL=0
tXS=270
tXSDLL=0
write_buffer_size=64
write_high_thresh_perc=85
write_low_thresh_perc=50
port=system.ruby.dir_cntrl5.memory

[system.mem_ctrls6]
type=DRAMCtrl
IDD0=0.055
IDD02=0.0
IDD2N=0.032
IDD2N2=0.0
IDD2P0=0.0
IDD2P02=0.0
IDD2P1=0.032
IDD2P12=0.0
IDD3N=0.038
IDD3N2=0.0
IDD3P0=0.0
IDD3P02=0.0
IDD3P1=0.038
IDD3P12=0.0
IDD4R=0.157
IDD4R2=0.0
IDD4W=0.125
IDD4W2=0.0
IDD5=0.235
IDD52=0.0
IDD6=0.02
IDD62=0.0
VDD=1.5
VDD2=0.0
activation_limit=4
addr_mapping=RoRaBaCoCh
bank_groups_per_rank=0
banks_per_rank=8
burst_length=8
channels=8
clk_domain=system.clk_domain
conf_table_reported=true
default_p_state=UNDEFINED
device_bus_width=8
device_rowbuffer_size=1024
device_size=536870912
devices_per_rank=8
dll=true
eventq_index=0
in_addr_map=true
kvm_map=true
max_accesses_per_row=16
mem_sched_policy=frfcfs
min_writes_per_switch=16
null=false
p_state_clk_gate_bins=20
p_state_clk_gate_max=1000000000
p_state_clk_gate_min=1
page_policy=open_adaptive
power_model=
qos_masters=               
qos_policy=Null
qos_priorities=1
qos_priority_escalation=false
qos_q_policy=fifo
qos_syncro_scheduler=false
qos_turnaround_policy=Null
range=0:536870911:8:22:3:6
ranks_per_channel=2
read_buffer_size=32
static_backend_latency=10
static_frontend_latency=10
tBURST=5
tCCD_L=0
tCCD_L_WR=0
tCK=1
tCL=14
tCS=3
tRAS=35
tRCD=14
tREFI=7800
tRFC=260
tRP=14
tRRD=6
tRRD_L=0
tRTP=8
tRTW=3
tWR=15
tWTR=8
tXAW=30
tXP=6
tXPDLL=0
tXS=270
tXSDLL=0
write_buffer_size=64
write_high_thresh_perc=85
write_low_thresh_perc=50
port=system.ruby.dir_cntrl6.memory

[system.mem_ctrls7]
type=DRAMCtrl
IDD0=0.055
IDD02=0.0
IDD2N=0.032
IDD2N2=0.0
IDD2P0=0.0
IDD2P02=0.0
IDD2P1=0.032
IDD2P12=0.0
IDD3N=0.038
IDD3N2=0.0
IDD3P0=0.0
IDD3P02=0.0
IDD3P1=0.038
IDD3P12=0.0
IDD4R=0.157
IDD4R2=0.0
IDD4W=0.125
IDD4W2=0.0
IDD5=0.235
IDD52=0.0
IDD6=0.02
IDD62=0.0
VDD=1.5
VDD2=0.0
activation_limit=4
addr_mapping=RoRaBaCoCh
bank_groups_per_rank=0
banks_per_rank=8
burst_length=8
channels=8
clk_domain=system.clk_domain
conf_table_reported=true
default_p_state=UNDEFINED
device_bus_width=8
device_rowbuffer_size=1024
device_size=536870912
devices_per_rank=8
dll=true
eventq_index=0
in_addr_map=true
kvm_map=true
max_accesses_per_row=16
mem_sched_policy=frfcfs
min_writes_per_switch=16
null=false
p_state_clk_gate_bins=20
p_state_clk_gate_max=1000000000
p_state_clk_gate_min=1
page_policy=open_adaptive
power_model=
qos_masters=               
qos_policy=Null
qos_priorities=1
qos_priority_escalation=false
qos_q_policy=fifo
qos_syncro_scheduler=false
qos_turnaround_policy=Null
range=0:536870911:8:22:3:7
ranks_per_channel=2
read_buffer_size=32
static_backend_latency=10
static_frontend_latency=10
tBURST=5
tCCD_L=0
tCCD_L_WR=0
tCK=1
tCL=14
tCS=3
tRAS=35
tRCD=14
tREFI=7800
tRFC=260
tRP=14
tRRD=6
tRRD_L=0
tRTP=8
tRTW=3
tWR=15
tWTR=8
tXAW=30
tXP=6
tXPDLL=0
tXS=270
tXSDLL=0
write_buffer_size=64
write_high_thresh_perc=85
write_low_thresh_perc=50
port=system.ruby.dir_cntrl7.memory

[system.ruby]
type=RubySystem
children=clk_domain dir_cntrl0 dir_cntrl1 dir_cntrl2 dir_cntrl3 dir_cntrl4 dir_cntrl5 dir_cntrl6 dir_cntrl7 l1_cntrl0 l1_cntrl1 l1_cntrl2 l1_cntrl3 l1_cntrl4 l1_cntrl5 l1_cntrl6 l1_cntrl7 network
access_backing_store=false
all_instructions=false
block_size_bytes=64
clk_domain=system.ruby.clk_domain
default_p_state=UNDEFINED
eventq_index=0
hot_lines=false
memory_size_bits=48
num_of_sequencers=8
number_of_virtual_networks=10
p_state_clk_gate_bins=20
p_state_clk_gate_max=1000000000
p_state_clk_gate_min=1
phys_mem=Null
power_model=
randomization=false

[system.ruby.clk_domain]
type=SrcClockDomain
clock=1
domain_id=-1
eventq_index=0
init_perf_level=0
voltage_domain=system.voltage_domain

[system.ruby.dir_cntrl0]
type=Directory_Controller
children=directory forwardToDir requestToDir responseToDir
addr_ranges=0:536870911:8:22:3:0
buffer_size=0
clk_domain=system.ruby.clk_domain
cluster_id=0
default_p_state=UNDEFINED
eventq_index=0
forwardToDir=system.ruby.dir_cntrl0.forwardToDir
number_of_TBEs=256
p_state_clk_gate_bins=20
p_state_clk_gate_max=1000000000
p_state_clk_gate_min=1
power_model=
recycle_latency=10
requestToDir=system.ruby.dir_cntrl0.requestToDir
responseToDir=system.ruby.dir_cntrl0.responseToDir
ruby_system=system.ruby
system=system
transitions_per_cycle=32
version=0
memory=system.mem_ctrls0.port

[system.ruby.dir_cntrl0.directory]
type=RubyDirectoryMemory
addr_ranges=0:536870911:8:22:3:0
eventq_index=0

[system.ruby.dir_cntrl0.forwardToDir]
type=MessageBuffer
buffer_size=0
eventq_index=0
ordered=false
randomization=false

[system.ruby.dir_cntrl0.requestToDir]
type=MessageBuffer
buffer_size=0
eventq_index=0
ordered=false
randomization=false

[system.ruby.dir_cntrl0.responseToDir]
type=MessageBuffer
buffer_size=0
eventq_index=0
ordered=false
randomization=false

[system.ruby.dir_cntrl1]
type=Directory_Controller
children=directory forwardToDir requestToDir responseToDir
addr_ranges=0:536870911:8:22:3:1
buffer_size=0
clk_domain=system.ruby.clk_domain
cluster_id=0
default_p_state=UNDEFINED
eventq_index=0
forwardToDir=system.ruby.dir_cntrl1.forwardToDir
number_of_TBEs=256
p_state_clk_gate_bins=20
p_state_clk_gate_max=1000000000
p_state_clk_gate_min=1
power_model=
recycle_latency=10
requestToDir=system.ruby.dir_cntrl1.requestToDir
responseToDir=system.ruby.dir_cntrl1.responseToDir
ruby_system=system.ruby
system=system
transitions_per_cycle=32
version=1
memory=system.mem_ctrls1.port

[system.ruby.dir_cntrl1.directory]
type=RubyDirectoryMemory
addr_ranges=0:536870911:8:22:3:1
eventq_index=0

[system.ruby.dir_cntrl1.forwardToDir]
type=MessageBuffer
buffer_size=0
eventq_index=0
ordered=false
randomization=false

[system.ruby.dir_cntrl1.requestToDir]
type=MessageBuffer
buffer_size=0
eventq_index=0
ordered=false
randomization=false

[system.ruby.dir_cntrl1.responseToDir]
type=MessageBuffer
buffer_size=0
eventq_index=0
ordered=false
randomization=false

[system.ruby.dir_cntrl2]
type=Directory_Controller
children=directory forwardToDir requestToDir responseToDir
addr_ranges=0:536870911:8:22:3:2
buffer_size=0
clk_domain=system.ruby.clk_domain
cluster_id=0
default_p_state=UNDEFINED
eventq_index=0
forwardToDir=system.ruby.dir_cntrl2.forwardToDir
number_of_TBEs=256
p_state_clk_gate_bins=20
p_state_clk_gate_max=1000000000
p_state_clk_gate_min=1
power_model=
recycle_latency=10
requestToDir=system.ruby.dir_cntrl2.requestToDir
responseToDir=system.ruby.dir_cntrl2.responseToDir
ruby_system=system.ruby
system=system
transitions_per_cycle=32
version=2
memory=system.mem_ctrls2.port

[system.ruby.dir_cntrl2.directory]
type=RubyDirectoryMemory
addr_ranges=0:536870911:8:22:3:2
eventq_index=0

[system.ruby.dir_cntrl2.forwardToDir]
type=MessageBuffer
buffer_size=0
eventq_index=0
ordered=false
randomization=false

[system.ruby.dir_cntrl2.requestToDir]
type=MessageBuffer
buffer_size=0
eventq_index=0
ordered=false
randomization=false

[system.ruby.dir_cntrl2.responseToDir]
type=MessageBuffer
buffer_size=0
eventq_index=0
ordered=false
randomization=false

[system.ruby.dir_cntrl3]
type=Directory_Controller
children=directory forwardToDir requestToDir responseToDir
addr_ranges=0:536870911:8:22:3:3
buffer_size=0
clk_domain=system.ruby.clk_domain
cluster_id=0
default_p_state=UNDEFINED
eventq_index=0
forwardToDir=system.ruby.dir_cntrl3.forwardToDir
number_of_TBEs=256
p_state_clk_gate_bins=20
p_state_clk_gate_max=1000000000
p_state_clk_gate_min=1
power_model=
recycle_latency=10
requestToDir=system.ruby.dir_cntrl3.requestToDir
responseToDir=system.ruby.dir_cntrl3.responseToDir
ruby_system=system.ruby
system=system
transitions_per_cycle=32
version=3
memory=system.mem_ctrls3.port

[system.ruby.dir_cntrl3.directory]
type=RubyDirectoryMemory
addr_ranges=0:536870911:8:22:3:3
eventq_index=0

[system.ruby.dir_cntrl3.forwardToDir]
type=MessageBuffer
buffer_size=0
eventq_index=0
ordered=false
randomization=false

[system.ruby.dir_cntrl3.requestToDir]
type=MessageBuffer
buffer_size=0
eventq_index=0
ordered=false
randomization=false

[system.ruby.dir_cntrl3.responseToDir]
type=MessageBuffer
buffer_size=0
eventq_index=0
ordered=false
randomization=false

[system.ruby.dir_cntrl4]
type=Directory_Controller
children=directory forwardToDir requestToDir responseToDir
addr_ranges=0:536870911:8:22:3:4
buffer_size=0
clk_domain=system.ruby.clk_domain
cluster_id=0
default_p_state=UNDEFINED
eventq_index=0
forwardToDir=system.ruby.dir_cntrl4.forwardToDir
number_of_TBEs=256
p_state_clk_gate_bins=20
p_state_clk_gate_max=1000000000
p_state_clk_gate_min=1
power_model=
recycle_latency=10
requestToDir=system.ruby.dir_cntrl4.requestToDir
responseToDir=system.ruby.dir_cntrl4.responseToDir
ruby_system=system.ruby
system=system
transitions_per_cycle=32
version=4
memory=system.mem_ctrls4.port

[system.ruby.dir_cntrl4.directory]
type=RubyDirectoryMemory
addr_ranges=0:536870911:8:22:3:4
eventq_index=0

[system.ruby.dir_cntrl4.forwardToDir]
type=MessageBuffer
buffer_size=0
eventq_index=0
ordered=false
randomization=false

[system.ruby.dir_cntrl4.requestToDir]
type=MessageBuffer
buffer_size=0
eventq_index=0
ordered=false
randomization=false

[system.ruby.dir_cntrl4.responseToDir]
type=MessageBuffer
buffer_size=0
eventq_index=0
ordered=false
randomization=false

[system.ruby.dir_cntrl5]
type=Directory_Controller
children=directory forwardToDir requestToDir responseToDir
addr_ranges=0:536870911:8:22:3:5
buffer_size=0
clk_domain=system.ruby.clk_domain
cluster_id=0
default_p_state=UNDEFINED
eventq_index=0
forwardToDir=system.ruby.dir_cntrl5.forwardToDir
number_of_TBEs=256
p_state_clk_gate_bins=20
p_state_clk_gate_max=1000000000
p_state_clk_gate_min=1
power_model=
recycle_latency=10
requestToDir=system.ruby.dir_cntrl5.requestToDir
responseToDir=system.ruby.dir_cntrl5.responseToDir
ruby_system=system.ruby
system=system
transitions_per_cycle=32
version=5
memory=system.mem_ctrls5.port

[system.ruby.dir_cntrl5.directory]
type=RubyDirectoryMemory
addr_ranges=0:536870911:8:22:3:5
eventq_index=0

[system.ruby.dir_cntrl5.forwardToDir]
type=MessageBuffer
buffer_size=0
eventq_index=0
ordered=false
randomization=false

[system.ruby.dir_cntrl5.requestToDir]
type=MessageBuffer
buffer_size=0
eventq_index=0
ordered=false
randomization=false

[system.ruby.dir_cntrl5.responseToDir]
type=MessageBuffer
buffer_size=0
eventq_index=0
ordered=false
randomization=false

[system.ruby.dir_cntrl6]
type=Directory_Controller
children=directory forwardToDir requestToDir responseToDir
addr_ranges=0:536870911:8:22:3:6
buffer_size=0
clk_domain=system.ruby.clk_domain
cluster_id=0
default_p_state=UNDEFINED
eventq_index=0
forwardToDir=system.ruby.dir_cntrl6.forwardToDir
number_of_TBEs=256
p_state_clk_gate_bins=20
p_state_clk_gate_max=1000000000
p_state_clk_gate_min=1
power_model=
recycle_latency=10
requestToDir=system.ruby.dir_cntrl6.requestToDir
responseToDir=system.ruby.dir_cntrl6.responseToDir
ruby_system=system.ruby
system=system
transitions_per_cycle=32
version=6
memory=system.mem_ctrls6.port

[system.ruby.dir_cntrl6.directory]
type=RubyDirectoryMemory
addr_ranges=0:536870911:8:22:3:6
eventq_index=0

[system.ruby.dir_cntrl6.forwardToDir]
type=MessageBuffer
buffer_size=0
eventq_index=0
ordered=false
randomization=false

[system.ruby.dir_cntrl6.requestToDir]
type=MessageBuffer
buffer_size=0
eventq_index=0
ordered=false
randomization=false

[system.ruby.dir_cntrl6.responseToDir]
type=MessageBuffer
buffer_size=0
eventq_index=0
ordered=false
randomization=false

[system.ruby.dir_cntrl7]
type=Directory_Controller
children=directory forwardToDir requestToDir responseToDir
addr_ranges=0:536870911:8:22:3:7
buffer_size=0
clk_domain=system.ruby.clk_domain
cluster_id=0
default_p_state=UNDEFINED
eventq_index=0
forwardToDir=system.ruby.dir_cntrl7.forwardToDir
number_of_TBEs=256
p_state_clk_gate_bins=20
p_state_clk_gate_max=1000000000
p_state_clk_gate_min=1
power_model=
recycle_latency=10
requestToDir=system.ruby.dir_cntrl7.requestToDir
responseToDir=system.ruby.dir_cntrl7.responseToDir
ruby_system=system.ruby
system=system
transitions_per_cycle=32
version=7
memory=system.mem_ctrls7.port

[system.ruby.dir_cntrl7.directory]
type=RubyDirectoryMemory
addr_ranges=0:536870911:8:22:3:7
eventq_index=0

[system.ruby.dir_cntrl7.forwardToDir]
type=MessageBuffer
buffer_size=0
eventq_index=0
ordered=false
randomization=false

[system.ruby.dir_cntrl7.requestToDir]
type=MessageBuffer
buffer_size=0
eventq_index=0
ordered=false
randomization=false

[system.ruby.dir_cntrl7.responseToDir]
type=MessageBuffer
buffer_size=0
eventq_index=0
ordered=false
randomization=false

[system.ruby.l1_cntrl0]
type=L1Cache_Controller
children=cacheMemory forwardFromCache mandatoryQueue requestFromCache responseFromCache sequencer
addr_ranges=0:18446744073709551615:0:0:0:0
buffer_size=0
clk_domain=system.ruby.clk_domain
cluster_id=0
default_p_state=UNDEFINED
eventq_index=0
forwardFromCache=system.ruby.l1_cntrl0.forwardFromCache
issue_latency=2
mandatoryQueue=system.ruby.l1_cntrl0.mandatoryQueue
number_of_TBEs=256
p_state_clk_gate_bins=20
p_state_clk_gate_max=1000000000
p_state_clk_gate_min=1
power_model=
recycle_latency=10
requestFromCache=system.ruby.l1_cntrl0.requestFromCache
responseFromCache=system.ruby.l1_cntrl0.responseFromCache
ruby_system=system.ruby
sequencer=system.ruby.l1_cntrl0.sequencer
system=system
transitions_per_cycle=32
version=0

[system.ruby.l1_cntrl0.cacheMemory]
type=RubyCache
children=replacement_policy
assoc=2
block_size=0
dataAccessLatency=1
dataArrayBanks=1
eventq_index=0
is_icache=false
replacement_policy=system.ruby.l1_cntrl0.cacheMemory.replacement_policy
resourceStalls=false
ruby_system=system.ruby
size=65536
start_index_bit=6
tagAccessLatency=1
tagArrayBanks=1

[system.ruby.l1_cntrl0.cacheMemory.replacement_policy]
type=PseudoLRUReplacementPolicy
assoc=2
block_size=64
eventq_index=0
size=65536

[system.ruby.l1_cntrl0.forwardFromCache]
type=MessageBuffer
buffer_size=0
eventq_index=0
ordered=false
randomization=false

[system.ruby.l1_cntrl0.mandatoryQueue]
type=MessageBuffer
buffer_size=0
eventq_index=0
ordered=false
randomization=false

[system.ruby.l1_cntrl0.requestFromCache]
type=MessageBuffer
buffer_size=0
eventq_index=0
ordered=false
randomization=false

[system.ruby.l1_cntrl0.responseFromCache]
type=MessageBuffer
buffer_size=0
eventq_index=0
ordered=false
randomization=false

[system.ruby.l1_cntrl0.sequencer]
type=RubySequencer
clk_domain=system.ruby.clk_domain
coreid=99
dcache=system.ruby.l1_cntrl0.cacheMemory
dcache_hit_latency=1
deadlock_threshold=500000
default_p_state=UNDEFINED
eventq_index=0
garnet_standalone=true
icache=system.ruby.l1_cntrl0.cacheMemory
icache_hit_latency=1
is_cpu_sequencer=true
max_outstanding_requests=16
no_retry_on_stall=false
p_state_clk_gate_bins=20
p_state_clk_gate_max=1000000000
p_state_clk_gate_min=1
power_model=
ruby_system=system.ruby
support_data_reqs=true
support_inst_reqs=true
system=system
using_ruby_tester=false
version=0
slave=system.cpu0.test

[system.ruby.l1_cntrl1]
type=L1Cache_Controller
children=cacheMemory forwardFromCache mandatoryQueue requestFromCache responseFromCache sequencer
addr_ranges=0:18446744073709551615:0:0:0:0
buffer_size=0
clk_domain=system.ruby.clk_domain
cluster_id=0
default_p_state=UNDEFINED
eventq_index=0
forwardFromCache=system.ruby.l1_cntrl1.forwardFromCache
issue_latency=2
mandatoryQueue=system.ruby.l1_cntrl1.mandatoryQueue
number_of_TBEs=256
p_state_clk_gate_bins=20
p_state_clk_gate_max=1000000000
p_state_clk_gate_min=1
power_model=
recycle_latency=10
requestFromCache=system.ruby.l1_cntrl1.requestFromCache
responseFromCache=system.ruby.l1_cntrl1.responseFromCache
ruby_system=system.ruby
sequencer=system.ruby.l1_cntrl1.sequencer
system=system
transitions_per_cycle=32
version=1

[system.ruby.l1_cntrl1.cacheMemory]
type=RubyCache
children=replacement_policy
assoc=2
block_size=0
dataAccessLatency=1
dataArrayBanks=1
eventq_index=0
is_icache=false
replacement_policy=system.ruby.l1_cntrl1.cacheMemory.replacement_policy
resourceStalls=false
ruby_system=system.ruby
size=65536
start_index_bit=6
tagAccessLatency=1
tagArrayBanks=1

[system.ruby.l1_cntrl1.cacheMemory.replacement_policy]
type=PseudoLRUReplacementPolicy
assoc=2
block_size=64
eventq_index=0
size=65536
